Version 4
SHEET 1 880 680
WIRE 128 -224 -96 -224
WIRE 272 -224 208 -224
WIRE 272 -192 272 -224
WIRE 272 -80 272 -128
WIRE 128 96 -96 96
WIRE 272 96 208 96
WIRE -96 128 -96 96
WIRE 272 128 272 96
WIRE 272 208 272 192
WIRE 272 208 -96 208
WIRE 272 240 272 208
FLAG 272 240 0
FLAG 272 -80 0
FLAG -96 96 V-ACCU
FLAG -96 -224 V-ACCU
SYMBOL res 224 80 R90
WINDOW 0 0 56 VBottom 2
WINDOW 3 32 56 VTop 2
SYMATTR InstName R1
SYMATTR Value 180
SYMBOL cap 256 128 R0
SYMATTR InstName C1
SYMATTR Value 1600µ
SYMBOL voltage -96 112 R0
WINDOW 3 -398 54 Left 2
WINDOW 123 0 0 Left 0
WINDOW 39 0 0 Left 0
SYMATTR Value PULSE(0 400 0.01 0.01 0.01 10)
SYMATTR InstName V1
SYMBOL res 224 -240 R90
WINDOW 0 0 56 VBottom 2
WINDOW 3 32 56 VTop 2
SYMATTR InstName R2
SYMATTR Value 400
SYMBOL cap 256 -192 R0
SYMATTR InstName C2
SYMATTR Value 1600µ
TEXT -128 264 Left 2 !.tran 5
TEXT 200 40 Left 2 ;50W resistor, 20x overload 0.05s
TEXT 224 -272 Left 2 ;25W resistor, 15x overload 0.05s
