Version 4
SHEET 1 880 680
WIRE -192 -48 -192 -64
WIRE 96 -48 -192 -48
WIRE 144 128 80 128
WIRE 336 144 208 144
WIRE 96 160 96 -48
WIRE 144 160 96 160
WIRE 0 192 -16 192
WIRE 80 192 80 128
WIRE 80 192 0 192
WIRE 48 272 0 272
WIRE 80 272 80 256
WIRE 80 272 48 272
WIRE 48 336 48 272
FLAG 48 336 0
FLAG -656 208 0
FLAG -656 128 12V
FLAG -96 192 12V
FLAG -192 16 0
FLAG 176 176 0
FLAG 176 112 12V
FLAG -640 -48 0
FLAG -640 -128 sig
FLAG -192 -144 sig
FLAG 336 144 Vout
SYMBOL cap 64 192 R0
SYMATTR InstName C1
SYMATTR Value 100n
SYMBOL res -16 176 R0
SYMATTR InstName R1
SYMATTR Value 10k
SYMBOL res 0 176 R90
WINDOW 0 0 56 VBottom 2
WINDOW 3 32 56 VTop 2
SYMATTR InstName R2
SYMATTR Value 10k
SYMBOL voltage -656 112 R0
WINDOW 123 0 0 Left 0
WINDOW 39 0 0 Left 0
SYMATTR InstName V1
SYMATTR Value PULSE(0 12 0.1 0.001 0.001 5)
SYMBOL cap -208 -48 R0
SYMATTR InstName C2
SYMATTR Value 1µ
SYMBOL res -208 -160 R0
SYMATTR InstName R4
SYMATTR Value 500k
SYMBOL voltage -640 -144 R0
WINDOW 123 0 0 Left 0
WINDOW 39 0 0 Left 0
SYMATTR InstName V2
SYMATTR Value PULSE(0 12 0.5 0.0001 0.0001 1)
SYMBOL Opamps\\OP284 176 80 R0
SYMATTR InstName U1
TEXT 202 -170 Left 2 !.tran 1.7
TEXT 208 -120 Left 2 !.lib opamp.sub
